# CIF file generated by openbabel 3.1.1, see https://openbabel.org
data_I
_chemical_name_common ''
_cell_length_a 7.83
_cell_length_b 5.94
_cell_length_c 10
_cell_angle_alpha 90
_cell_angle_beta 90
_cell_angle_gamma 90
_space_group_name_H-M_alt              'P b c n'
_space_group_IT_number                 60

loop_
_space_group_symop_operation_xyz
   'x, y, z'
   '-x, -y, -z'
   '-x+1/2, -y+1/2, z+1/2'
   'x+1/2, y+1/2, -z+1/2'
   '-x, y, -z+1/2'
   'x, -y, z+1/2'
   'x+1/2, -y+1/2, -z'
   '-x+1/2, y+1/2, z'

loop_
    _atom_site_label
    _atom_site_type_symbol
    _atom_site_fract_x
    _atom_site_fract_y
    _atom_site_fract_z
    _atom_site_occupancy
  C1   C   0.000   0.119   0.123   1.0 
  C2   C   0.094  -0.083   0.110   1.0 
  C3   C  -0.094   0.202   0.012   1.0 
  H1   H   0.167  -0.148   0.196   1.0 
  H2   H  -0.167   0.359   0.022   1.0 
  O1   O   0.000   0.446   0.250   1.0 
  OC1  C   0.000   0.242   0.250   0.5 
  OC2  O   0.000   0.242   0.250   0.5 
