_chemical_name_common                  'PEEK'
_cell_length_a                         7.830000
_cell_length_b                         5.940000
_cell_length_c                         29.580000
_cell_angle_alpha                      90.000000
_cell_angle_beta                       90.000000
_cell_angle_gamma                      90.000000
_cell_volume                           1375.771712
_space_group_name_H-M_alt              'P b c n'
_space_group_IT_number                 60

loop_
_space_group_symop_operation_xyz
   'x, y, z'
   '-x, -y, -z'
   '-x+1/2, -y+1/2, z+1/2'
   'x+1/2, y+1/2, -z+1/2'
   '-x, y, -z+1/2'
   'x, -y, z+1/2'
   'x+1/2, -y+1/2, -z'
   '-x+1/2, y+1/2, z'
loop_
   _atom_site_label
   _atom_site_occupancy
   _atom_site_fract_x
   _atom_site_fract_y
   _atom_site_fract_z
   _atom_site_adp_type
   _atom_site_U_iso_or_equiv
   _atom_site_type_symbol
   O1         1.0     0.021000    -0.212000     0.082000    Uiso  ? O
   O2         1.0    -0.042000     0.426000     0.251000    Uiso  ? O
   O3         1.0     0.021000    -0.212000     0.419000    Uiso  ? O
   O4         1.0    -0.021000     0.212000    -0.082000    Uiso  ? O
   O5         1.0    -0.021000     0.212000     0.584000    Uiso  ? O
   O6         1.0     0.042000    -0.426000     0.752000    Uiso  ? O
   C1         1.0     0.011000    -0.107000     0.042000    Uiso  ? C
   C2         1.0     0.083000     0.104000     0.036000    Uiso  ? C
   C3         1.0     0.072000     0.211000    -0.006000    Uiso  ? C
   C4         1.0    -0.011000     0.107000    -0.042000    Uiso  ? C
   C5         1.0    -0.083000    -0.104000    -0.036000    Uiso  ? C
   C6         1.0    -0.072000    -0.211000     0.006000    Uiso  ? C
   C7         1.0     0.011000    -0.107000     0.123000    Uiso  ? C
   C8         1.0    -0.100000     0.073000     0.129000    Uiso  ? C
   C9         1.0    -0.111000     0.180000     0.171000    Uiso  ? C
   C10        1.0    -0.011000     0.107000     0.207000    Uiso  ? C
   C11        1.0     0.100000    -0.073000     0.201000    Uiso  ? C
   C12        1.0     0.111000    -0.180000     0.159000    Uiso  ? C
   C13        1.0    -0.022000     0.220000     0.251000    Uiso  ? C
   C14        1.0    -0.011000     0.107000     0.295000    Uiso  ? C
   C15        1.0    -0.083000    -0.104000     0.301000    Uiso  ? C
   C16        1.0    -0.072000    -0.211000     0.342000    Uiso  ? C
   C17        1.0     0.011000    -0.107000     0.378000    Uiso  ? C
   C18        1.0     0.083000     0.140000     0.372000    Uiso  ? C
   C19        1.0     0.072000     0.211000     0.331000    Uiso  ? C
   C20        1.0     0.011000    -0.107000     0.460000    Uiso  ? C
   C21        1.0    -0.100000     0.073000     0.465000    Uiso  ? C
   C22        1.0    -0.111000     0.180000     0.507000    Uiso  ? C
   C23        1.0    -0.011000     0.107000     0.543000    Uiso  ? C
   C24        1.0     0.100000    -0.073000     0.537000    Uiso  ? C
   C25        1.0     0.111000    -0.180000     0.495000    Uiso  ? C
   C26        1.0    -0.011000     0.107000     0.624000    Uiso  ? C
   C27        1.0    -0.083000    -0.104000     0.630000    Uiso  ? C
   C28        1.0    -0.072000    -0.211000     0.672000    Uiso  ? C
   C29        1.0     0.011000    -0.107000     0.708000    Uiso  ? C
   C30        1.0     0.083000     0.104000     0.702000    Uiso  ? C
   C31        1.0     0.072000     0.211000     0.660000    Uiso  ? C
   C32        1.0     0.022000    -0.220000     0.752000    Uiso  ? C
   C33        1.0     0.011000    -0.107000     0.796000    Uiso  ? C
   C34        1.0    -0.100000     0.073000     0.802000    Uiso  ? C
   C35        1.0    -0.111000     0.180000     0.843000    Uiso  ? C
   C36        1.0    -0.011000     0.107000     0.879000    Uiso  ? C
   C37        1.0     0.100000    -0.073000     0.873000    Uiso  ? C
   C38        1.0     0.111000    -0.180000     0.832000    Uiso  ? C
